tests/data/power_flow/pandapower/components/asymmetric/pandapower-asymmetric-shunt/pgm_asym_output.json
{
  "line": [
    {
      "id": 3,
      "energized": 1,
      "loading": 0.0023902955575240124,
      "p_from": [
        368.0503788056433,
        368.050378827478,
        368.050378798049
      ],
      "q_from": [
        -14485.721806011048,
        -14485.721806018832,
        -14485.721805999667
      ],
      "i_from": [
        2.390295557522638,
        2.3902955575240123,
        2.390295557520729
      ],
      "s_from": [
        14490.396727573852,
        14490.396727582187,
        14490.39672756228
      ],
      "p_to": [
        -367.53301405566145,
        -367.53301406965215,
        -367.53301405243894
      ],
      "q_to": [
        2940.264112384122,
        2940.264112387268,
        2940.26411237011
      ],
      "i_to": [
        0.48877035418459414,
        0.4887703541853952,
        0.4887703541822347
      ],
      "s_to": [
        2963.1458902650793,
        2963.145890269936,
        2963.1458902507757
      ]
    }
  ],
  "node": [
    {
      "id": 1,
      "energized": 1,
      "u_pu": [
        1.0000000000000004,
        1.0000000000000007,
        1.0000000000000004
      ],
      "u": [
        6062.1778264910745,
        6062.177826491075,
        6062.1778264910745
      ],
      "u_angle": [
        -3.461833677819976e-17,
        -2.0943951023931953,
        2.0943951023931957
      ]
    },
    {
      "id": 2,
      "energized": 1,
      "u_pu": [
        1.0000449160668134,
        1.0000449160668137,
        1.0000449160668134
      ],
      "u": [
        6062.450115675361,
        6062.450115675363,
        6062.450115675361
      ],
      "u_angle": [
        -6.12726602113812e-05,
        -2.094456375053407,
        2.0943338297329843
      ]
    }
  ],
  "shunt": [
    {
      "id": 6,
      "energized": 1,
      "p": [
        367.5330140505219,
        367.53301405052207,
        367.53301405052207
      ],
      "q": [
        -2940.264112404175,
        -2940.2641124041766,
        -2940.264112404175
      ],
      "i": [
        0.48877035418777115,
        0.48877035418777126,
        0.48877035418777126
      ],
      "s": [
        2963.14589028434,
        2963.145890284341,
        2963.14589028434
      ],
      "pf": [
        0.12403473458920845,
        0.12403473458920847,
        0.12403473458920851
      ]
    },
    {
      "id": 7,
      "energized": 1,
      "p": [
        -0.0,
        -0.0,
        -0.0
      ],
      "q": [
        -0.0,
        -0.0,
        0.0
      ],
      "i": [
        0.0,
        0.0,
        0.0
      ],
      "s": [
        0.0,
        0.0,
        0.0
      ],
      "pf": [
        0.0,
        0.0,
        0.0
      ]
    }
  ],
  "source": [
    {
      "id": 4,
      "energized": 1,
      "p": [
        -324.73317998850143,
        -3945.811035408224,
        -657.1606267978246
      ],
      "q": [
        -14844.331094251102,
        -24509.756373264237,
        -16537.175588523587
      ],
      "i": [
        2.44926543075902,
        4.095119318999294,
        2.7300795459995295
      ],
      "s": [
        14847.882585538433,
        24825.34153247274,
        16550.22768831516
      ],
      "pf": [
        -0.021870672677920124,
        -0.15894287014125924,
        -0.039707044469351624
      ]
    }
  ]
}